%chk=chromiumhexacarbonyl.chk
# opt rhf/3-21g geom=connectivity scf=novaracc

Title Card Required

0 1
 C              
 C                  1    2.68700577
 C                  1    2.68700577    2   60.00000000
 C                  3    2.68700577    1   90.00000000    2  -54.73561032    0
 C                  1    2.68700577    3   90.00000000    4    0.00000000    0
 O                  1    1.11540000    3  135.00000000    4  180.00000000    0
 O                  2    1.11540000    1  135.00000000    6    0.00000000    0
 O                  3    1.11540000    1  135.00000000    6    0.00000000    0
 O                  4    1.11540000    3  135.00000000    1  180.00000000    0
 O                  5    1.11540000    1  135.00000000    6    0.00000000    0
 Cr                 1    1.90000000    3   45.00000000    4    0.00000000    0
 C                 11    1.90000000    1   90.00000000    3   90.00000000    0
 O                 12    1.11540000    1  135.00000000    6    0.00000000    0

 1 6 3.0 11 1.0
 2 7 3.0 11 1.0
 3 8 3.0 11 1.0
 4 9 3.0 11 1.0
 5 10 3.0 11 1.0
 6
 7
 8
 9
 10
 11 12 1.0
 12 13 3.0
 13

