%chk=tms_opt.chk
# opt b3lyp/6-31g(d) test

optimization of tms using dft b3ylp in the 6-31g(d) basis set

0 1
 Si             
 C                  1            B1
 C                  1            B2    2            A1
 C                  1            B3    3            A2    2            D1    0
 H                  4            B4    1            A3    3            D2    0
 H                  4            B5    1            A4    3            D3    0
 H                  4            B6    1            A5    3            D4    0
 H                  2            B7    1            A6    3            D5    0
 H                  2            B8    1            A7    3            D6    0
 H                  2            B9    1            A8    3            D7    0
 H                  3           B10    1            A9    2            D8    0
 H                  3           B11    1           A10    2            D9    0
 H                  3           B12    1           A11    2           D10    0
 C                  1           B13    3           A12    2           D11    0
 H                 14           B14    1           A13    3           D12    0
 H                 14           B15    1           A14    3           D13    0
 H                 14           B16    1           A15    3           D14    0

   B1             1.94000000
   B2             1.94000000
   B3             1.94000000
   B4             1.07000000
   B5             1.07000000
   B6             1.07000000
   B7             1.07000000
   B8             1.07000000
   B9             1.07000000
   B10            1.07000000
   B11            1.07000000
   B12            1.07000000
   B13            1.94000000
   B14            1.07000000
   B15            1.07000000
   B16            1.07000000
   A1           109.47120255
   A2           109.47123134
   A3           109.47120255
   A4           109.47120255
   A5           109.47123134
   A6           109.47120255
   A7           109.47120255
   A8           109.47123134
   A9           109.47120255
   A10          109.47120255
   A11          109.47123134
   A12          109.47120255
   A13          109.47120255
   A14          109.47120255
   A15          109.47123134
   D1          -119.99999260
   D2           -60.00749260
   D3           179.99249260
   D4            59.99250000
   D5           179.88890000
   D6           -60.11108520
   D7            59.88890740
   D8            59.98684390
   D9           179.98685870
   D10          -60.01314870
   D11          120.00001480
   D12          -60.00561480
   D13           59.99440000
   D14          179.99439260

