 %chk=h10.chk
 #uhf/gen scf(tight,novaracc,noincfock,fulldiag)        stable(crhf) guess=read geom=nocrowd test
 
 hf stability analysis of h10 triangular lattice, y=  0.48901381746274913      alpha=   22.498999999999999     
 
 0 1
 H
 H 1   1.2779084988224048     
 H 1   1.2779084988224048       2    135.00200000000001     
 H 2   1.2779084988224048       1    44.997999999999998       3    0.0000000000000000     
 H 3   1.2779084988224048       1    180.00000000000000       2    0.0000000000000000     
 H 4   1.2779084988224048       2    180.00000000000000       1    0.0000000000000000     
 H 5   1.2779084988224048       3    180.00000000000000       2    0.0000000000000000     
 H 6   1.2779084988224048       4    180.00000000000000       1    0.0000000000000000     
 H 7   1.2779084988224048       5    180.00000000000000       2    0.0000000000000000     
 H 8   1.2779084988224048       6    180.00000000000000       1    0.0000000000000000     
 
@H.gbs
 
