 %chk=h10.chk
 #p uhf/gen scf(tight,novaracc,noincfock,fulldiag       ) stable=opt guess=(read) geom=nocrowd test
 
 hf stability analysis of h10 triangular lattice, y=  0.49264156670383669      alpha=   22.800000000000001
 
 0 1
 H
 H 1   1.2712819069720196
 H 1   1.2712819069720196       2    134.40000000000001
 H 2   1.2712819069720196       1    45.600000000000001       3    0.0000000000000000
 H 3   1.2712819069720196       1    180.00000000000000       2    0.0000000000000000
 H 4   1.2712819069720196       2    180.00000000000000       1    0.0000000000000000
 H 5   1.2712819069720196       3    180.00000000000000       2    0.0000000000000000
 H 6   1.2712819069720196       4    180.00000000000000       1    0.0000000000000000
 H 7   1.2712819069720196       5    180.00000000000000       2    0.0000000000000000
 H 8   1.2712819069720196       6    180.00000000000000       1    0.0000000000000000
 
H     0
S   10   1.00
   1000.000000000000            0.000068713567
    316.227766000000            0.000169141320
    100.000000000000            0.000823394812
     31.622776600000            0.003425569236
     10.000000000000            0.013951996000
      3.162277660000            0.056909313560
      1.000000000000            0.198286399900
      0.316227766000            0.496922426700
      0.100000000000            0.369846276400
      0.031622776600            0.003752720039
****
 
