 %chk=h10.chk
 #rhf/gen scf(symm,tight,novaracc,noincfock,fulldiag)   stable(crhf) guess=read geom=nocrowd test
 
 hf stability analysis of h10 triangular lattice, y=   2.5627058557175149     
 
 0 1
 H
 H 1   2.5725894702268199     
 H 1   2.5725894702268199       2    10.048000000000002     
 H 2   2.5725894702268199       1    169.95200000000000       3    0.0000000000000000     
 H 3   2.5725894702268199       1    180.00000000000000       2    0.0000000000000000     
 H 4   2.5725894702268199       2    180.00000000000000       1    0.0000000000000000     
 H 5   2.5725894702268199       3    180.00000000000000       2    0.0000000000000000     
 H 6   2.5725894702268199       4    180.00000000000000       1    0.0000000000000000     
 H 7   2.5725894702268199       5    180.00000000000000       2    0.0000000000000000     
 H 8   2.5725894702268199       6    180.00000000000000       1    0.0000000000000000     
 
@H.gbs
 
