%chk=ethylene_opt.chk
# opt rhf/6-31g(d) geom=connectivity

Title Card Required

0 1
 C                  2.25836433    0.09293680    0.00000000
 H                  2.79651091   -0.84343826    0.00000000
 H                  1.17896654    0.12899821    0.00000000
 C                  2.99101719    1.19094399    0.00000000
 H                  2.57030139    2.18562897   -0.00000000
 H                  4.07099663    1.18427974    0.00000000

 1 2 1.0 3 1.0 4 2.0
 2
 3
 4 5 1.0 6 1.0
 5
 6

