#T rhf/sto-3g test

sjkldfnlksjf

1 0 
C  0.0             0.0             0.0
C  0.0             0.0             2.845112131228
O  1.899115961744  0.0             4.139062527233
H -1.894048308506  0.0             3.747688672216
H  1.942500819960  0.0            -0.701145981971
H -1.007295466862 -1.669971842687 -0.705916966833
H -1.007295466862  1.669971842687 -0.705916966833

