 %chk=h10.chk
 #rhf/gen scf(symm,tight,novaracc,noincfock,fulldiag)   stable(crhf) geom=nocrowd test
 
 hf stability analysis of h10 triangular lattice, y=   2.5066432657105051     
 
 0 1
 H
 H 1   2.5172031055669808     
 H 1   2.5172031055669808       2    10.500000000000000     
 H 2   2.5172031055669808       1    169.50000000000000       3    0.0000000000000000     
 H 3   2.5172031055669808       1    180.00000000000000       2    0.0000000000000000     
 H 4   2.5172031055669808       2    180.00000000000000       1    0.0000000000000000     
 H 5   2.5172031055669808       3    180.00000000000000       2    0.0000000000000000     
 H 6   2.5172031055669808       4    180.00000000000000       1    0.0000000000000000     
 H 7   2.5172031055669808       5    180.00000000000000       2    0.0000000000000000     
 H 8   2.5172031055669808       6    180.00000000000000       1    0.0000000000000000     
 
@H.gbs
 
