 %chk=h10.chk
 #uhf/gen scf(tight,novaracc,noincfock,fulldiag)        stable(crhf) guess=read geom=nocrowd test
 
 hf stability analysis of h10 triangular lattice, y=   2.5434397828995103      alpha=   84.900000000000006     
 
 0 1
 H
 H 1   2.5535491074261558     
 H 1   2.5535491074261558       2    10.199999999999989     
 H 2   2.5535491074261558       1    169.80000000000001       3    0.0000000000000000     
 H 3   2.5535491074261558       1    180.00000000000000       2    0.0000000000000000     
 H 4   2.5535491074261558       2    180.00000000000000       1    0.0000000000000000     
 H 5   2.5535491074261558       3    180.00000000000000       2    0.0000000000000000     
 H 6   2.5535491074261558       4    180.00000000000000       1    0.0000000000000000     
 H 7   2.5535491074261558       5    180.00000000000000       2    0.0000000000000000     
 H 8   2.5535491074261558       6    180.00000000000000       1    0.0000000000000000     
 
@H.gbs
 
