 %chk=h3.chk
 #T CASSCF(3,2)/sto-3g pop=naturalorbitals test

 mbs CASSCF(3,2) spe calculation for isosceles H3 with
 the height of the triangle =   1.7320510    
 and the length of the third side  =   2.0000000    

           0           2
 H   0.0000000       0.0000000       1.7320510    
 H   1.0000000       0.0000000       0.0000000    
 H  -1.0000000       0.0000000       0.0000000    

