 %chk=H3_uhfsto3g.chk
 #T UHF/sto-3g Pop=NaturalOrbitals test

 preliminary UHF calculation to select active space orbitals 
 for isosceles H3 with
 the height of the triangle =   1.0000000    
 and the length of the third side  =   3.4641020    

           0           2
 H   0.0000000       0.0000000       1.0000000    
 H   1.7320510       0.0000000       0.0000000    
 H  -1.7320510       0.0000000       0.0000000    

